data_2B_2F
_audit_creation_date              2025-01-06
_audit_creation_method            'chain_nodes_1Al'
_symmetry_space_group_name_H-M    'P1'
_symmetry_Int_Tables_number       1
_symmetry_cell_setting            triclinic
loop_
_symmetry_equiv_pos_as_xyz
  x,y,z
_cell_length_a                     6.6230
_cell_length_b                    16.8930
_cell_length_c                    12.5920
_cell_angle_alpha                 90.0000
_cell_angle_beta                  90.0000
_cell_angle_gamma                 90.0000
loop_
_atom_site_label
_atom_site_type_symbol
_atom_site_fract_x
_atom_site_fract_y
_atom_site_fract_z
_atom_site_U_iso_or_equiv
_atom_site_adp_type
_atom_site_occupancy
_atom_site_charge
Al1       Al    0.2500000000    0.2500000000    0.7500000000   0.00000  Uiso   1.00        0.000000
Al2       Al    0.7500000000    0.2500000000    0.7500000000   0.00000  Uiso   1.00        0.000000
O3         O    0.0000000000    0.2500000000    0.6929700000   0.00000  Uiso   1.00        0.000000
O4         O    0.5000000000    0.2500000000    0.8070300000   0.00000  Uiso   1.00        0.000000
O5         O    0.1500005900    0.1669000000    0.8418200000   0.00000  Uiso   1.00        0.000000
O6         O    0.8400004100    0.3331000000    0.8418200000   0.00000  Uiso   1.00        0.000000
O7         O    0.1500005900    0.3331000000    0.8418200000   0.00000  Uiso   1.00        0.000000
O8         O    0.8400004100    0.1669000000    0.8418200000   0.00000  Uiso   1.00        0.000000
O9         O    0.3400004100    0.3331000000    0.6581800000   0.00000  Uiso   1.00        0.000000
O10        O    0.6500005900    0.1669000000    0.6581800000   0.00000  Uiso   1.00        0.000000
O11        O    0.3400004100    0.1669000000    0.6581800000   0.00000  Uiso   1.00        0.000000
O12        O    0.6500005900    0.3331000000    0.6581800000   0.00000  Uiso   1.00        0.000000
X13        C    0.0000000000    0.1291100000    0.8831100000   0.00000  Uiso   1.00        0.000000
X14        C    0.0000000000    0.3708900000    0.8831100000   0.00000  Uiso   1.00        0.000000
X15        C    0.5000000000    0.3708900000    0.6168900000   0.00000  Uiso   1.00        0.000000
X16        C    0.5000000000    0.1291100000    0.6168900000   0.00000  Uiso   1.00        0.000000
loop_


