
#======================================================================
# CRYSTAL DATA
#----------------------------------------------------------------------
data_VESTA_phase_1

_chemical_name_common                  'CAU-21-ODB-build-PBE-CellOptimized'
_cell_length_a                         16.622000
_cell_length_b                         16.622000
_cell_length_c                         23.528000
_cell_angle_alpha                      90.000000
_cell_angle_beta                       90.000000
_cell_angle_gamma                      90.000000
_cell_volume                           6500.571682
_space_group_name_H-M_alt              'I 4 2 2'
_space_group_IT_number                 97

loop_
_space_group_symop_operation_xyz
   'x, y, z'
   '-x, -y, z'
   '-y, x, z'
   'y, -x, z'
   '-x, y, -z'
   'x, -y, -z'
   'y, x, -z'
   '-y, -x, -z'
   'x+1/2, y+1/2, z+1/2'
   '-x+1/2, -y+1/2, z+1/2'
   '-y+1/2, x+1/2, z+1/2'
   'y+1/2, -x+1/2, z+1/2'
   '-x+1/2, y+1/2, -z+1/2'
   'x+1/2, -y+1/2, -z+1/2'
   'y+1/2, x+1/2, -z+1/2'
   '-y+1/2, -x+1/2, -z+1/2'

loop_
   _atom_site_label
   _atom_site_occupancy
   _atom_site_fract_x
   _atom_site_fract_y
   _atom_site_fract_z
   _atom_site_adp_type
   _atom_site_U_iso_or_equiv
   _atom_site_type_symbol
   O1         1.0     0.339820     0.705060     0.077310    Uiso  ? O
   O2         1.0     0.461980     0.765800     0.079230    Uiso  ? O
   O3         1.0     0.429290     0.854380     0.979100    Uiso  ? O
   O4         1.0     0.305310     0.796120     0.982490    Uiso  ? O
   O5         1.0     0.424780     0.689170     0.982310    Uiso  ? O
   O6         1.0     0.720000     0.610100     0.343500    Uiso  ? ZZ
   C7         1.0     0.396020     0.725440     0.285170    Uiso  ? C
   C8         1.0     0.336300     0.685750     0.253780    Uiso  ? C
   C9         1.0     0.337730     0.689440     0.194880    Uiso  ? C
   C10        1.0     0.399050     0.731510     0.166300    Uiso  ? C
   C11        1.0     0.458660     0.770290     0.198310    Uiso  ? C
   C12        1.0     0.457360     0.768040     0.257410    Uiso  ? C
   C13        1.0     0.400550     0.734440     0.103200    Uiso  ? C
   C14        1.0     0.864590     0.490500     0.426160    Uiso  ? C
   C15        1.0     0.831980     0.553770     0.394990    Uiso  ? C
   C16        1.0     0.753030     0.547390     0.375450    Uiso  ? C
   C17        1.0     0.705530     0.480380     0.387630    Uiso  ? C
   C18        1.0     0.238330     0.917770     0.919310    Uiso  ? C
   C19        1.0     0.318270     0.922090     0.938160    Uiso  ? C
   C20        1.0     0.353630     0.852280     0.969010    Uiso  ? C
   H21        1.0     0.926250     0.493840     0.441530    Uiso  ? H
   H22        1.0     0.289590     0.652900     0.276470    Uiso  ? H
   H23        1.0     0.291290     0.659590     0.169970    Uiso  ? H
   H24        1.0     0.506050     0.802890     0.176060    Uiso  ? H
   H25        1.0     0.503280     0.799190     0.281930    Uiso  ? H
   H26        1.0     0.867270     0.607090     0.385210    Uiso  ? H
   H27        1.0     0.644210     0.477240     0.371390    Uiso  ? H
   H28        1.0     0.203110     0.864210     0.928790    Uiso  ? H
   H29        1.0     0.438120     0.660910     0.947660    Uiso  ? H
   Al30       1.0     0.315000     0.685000     1.000000    Uiso  ? Al
   Al31       1.0     0.500000     0.768770     1.000000    Uiso  ? Al
   ZZ         1.0     0.720000     0.610100     0.343500    Uiso  ? O
