
#======================================================================
# CRYSTAL DATA
#----------------------------------------------------------------------
data_VESTA_phase_1

_chemical_name_common                  'MIL-96 (Al)'
_cell_length_a                         14.2074(2)
_cell_length_b                         14.2074(2)
_cell_length_c                         31.2302(9)
_cell_angle_alpha                      90.000000
_cell_angle_beta                       90.000000
_cell_angle_gamma                      120.000000
_cell_volume                           5459.270708
_space_group_name_H-M_alt              'P 63/m m c'
_space_group_IT_number                 194

loop_
_space_group_symop_operation_xyz
   'x, y, z'
   '-x, -y, -z'
   '-y, x-y, z'
   'y, -x+y, -z'
   '-x+y, -x, z'
   'x-y, x, -z'
   '-x, -y, z+1/2'
   'x, y, -z+1/2'
   'y, -x+y, z+1/2'
   '-y, x-y, -z+1/2'
   'x-y, x, z+1/2'
   '-x+y, -x, -z+1/2'
   'y, x, -z'
   '-y, -x, z'
   'x-y, -y, -z'
   '-x+y, y, z'
   '-x, -x+y, -z'
   'x, x-y, z'
   '-y, -x, -z+1/2'
   'y, x, z+1/2'
   '-x+y, y, -z+1/2'
   'x-y, -y, z+1/2'
   'x, x-y, -z+1/2'
   '-x, -x+y, z+1/2'

loop_
   _atom_site_label
   _atom_site_occupancy
   _atom_site_fract_x
   _atom_site_fract_y
   _atom_site_fract_z
   _atom_site_adp_type
   _atom_site_U_iso_or_equiv
   _atom_site_type_symbol
   Al1        1.0     0.07451(7)   0.14903(13)  0.250000    Uani  0.011811 Al
   Al2        1.0     0.16926(9)   0.58463(5)   0.41667(4)  Uani  0.013944 Al
   Al3        1.0     0.000000     0.500000     0.500000    Uani  0.012100 Al
   Al4        0.3300  0.26760(13)  0.73240(13)  0.33447(10) Uiso  0.007600 Al
   O1         1.0     0.000000     0.000000     0.250000    Uani  0.011711 O
   O2         1.0     0.1342(2)    0.56708(11)  0.47425(8)  Uani  0.012744 O
   O3         1.0     0.27169(11)  0.72831(11)  0.42465(10) Uani  0.020089 O
   O4         1.0     0.15356(17)  0.3071(4)    0.250000    Uani  0.026489 O
   O5         1.0     0.1973(4)    0.59864(16)  0.35686(11) Uani  0.061778 O
   O6         1.0    -0.0489(2)    0.3831(2)    0.46235(10) Uani  0.060333 O
   O7         1.0    -0.00872(18)  0.16451(17)  0.29369(7)  Uani  0.026989 O
   O8         1.0     0.06292(17)  0.43666(17)  0.40605(7)  Uani  0.027133 O
   C1         1.0    -0.0628(4)    0.2315(4)    0.36778(11) Uani  0.032956 C
   H1         1.0     0.003300     0.278500     0.354800    Uiso  0.040000 H
   C2         1.0    -0.1324(2)    0.1324(2)    0.34903(16) Uani  0.030333 C
   C3         1.0    -0.0908(4)    0.2611(4)    0.40566(12) Uani  0.037911 C
   C4         1.0    -0.1900(2)    0.1900(2)    0.42472(18) Uani  0.042511 C
   H4         1.0    -0.209000     0.209000     0.450500    Uiso  0.051000 H
   C5         1.0    -0.09957(17)  0.09957(17)  0.30903(14) Uani  0.020133 C
   C6         1.0    -0.0189(4)    0.3678(4)    0.42625(11) Uani  0.034633 C
   OW         1.0     0.333333     0.666667     0.5252(4)   Uiso  0.076000 O
   O11        0.3300  0.2116(4)    0.7884(4)    0.3306(4)   Uiso  0.031000 O
   O12        0.3300  0.2925(4)    0.7075(4)    0.2935(4)   Uiso  0.036000 O
   O13        0.3300  0.2412(5)    0.7588(5)    0.3007(4)   Uiso  0.053000 O
   ZZ         1.0    -0.11598(17)  0.11598(17)  0.32903(14) Uani  0.020133 Z
   ZZ         1.0     0.31445(17)  0.36930(17)  0.91596(14) Uani  0.020133 Z

loop_
   _atom_site_aniso_label
   _atom_site_aniso_U_11
   _atom_site_aniso_U_22
   _atom_site_aniso_U_33
   _atom_site_aniso_U_12
   _atom_site_aniso_U_13
   _atom_site_aniso_U_23
   Al1	 0.01060  0.01130  0.01370  0.00560  0.00000  0.00000
   Al2	 0.00880  0.01670  0.01370  0.00440  0.00080  0.00040
   Al3	 0.01420  0.01240  0.01030  0.00710  0.00160  0.00080
   O1	 0.01100  0.01100  0.01300  0.00540  0.00000  0.00000
   O2	 0.01040  0.01680  0.00890  0.00520  0.00300  0.00150
   O3	 0.00700  0.00700  0.04400  0.00180 -0.00070  0.00070
   O4	 0.02260  0.01400  0.04000  0.00700  0.00000  0.00000
   O5	 0.03400  0.10900  0.01720  0.01690  0.00770  0.00390
   O6	 0.04070  0.03360  0.06060 -0.01600  0.03450 -0.03440
   O7	 0.02490  0.01650  0.03230  0.00490  0.01510 -0.00410
   O8	 0.01450  0.02190  0.03260 -0.00020  0.00630 -0.01360
   C1	 0.01980  0.02430  0.03980 -0.00020  0.01090 -0.01190
   C2	 0.02350  0.02350  0.03500  0.00500  0.00980 -0.00980
   C3	 0.02330  0.02480  0.04600 -0.00270  0.01490 -0.01790
   C4	 0.02920  0.02920  0.04700 -0.00200  0.02030 -0.02030
   C5	 0.01990  0.01990  0.02200  0.01100  0.00250 -0.00250
   C6	 0.02100  0.02690  0.04270  0.00200  0.01040 -0.01820
   ZZ1 0.01990  0.01990  0.02200  0.01100  0.00250 -0.00250
   ZZ2 0.01990  0.01990  0.02200  0.01100  0.00250 -0.00250
