
#======================================================================
# CRYSTAL DATA
#----------------------------------------------------------------------
data_VESTA_phase_1

_chemical_name_common                  'NDI'
_cell_length_a                         24.911749
_cell_length_b                         24.911749
_cell_length_c                         24.911749
_cell_angle_alpha                      90.000000
_cell_angle_beta                       90.000000
_cell_angle_gamma                      90.000000
_cell_volume                           1.000000
_space_group_name_H-M_alt              'P 1'
_space_group_IT_number                 1

loop_
_space_group_symop_operation_xyz
   'x, y, z'

loop_
   _atom_site_label
   _atom_site_occupancy
   _atom_site_fract_x
   _atom_site_fract_y
   _atom_site_fract_z
   _atom_site_adp_type
   _atom_site_U_iso_or_equiv
   _atom_site_type_symbol
   X1         1.0     0.450349     0.899611     0.534556    Uiso  ? O
   X2         1.0     0.590990     0.108016     0.476635    Uiso  ? O
   X3         1.0     0.503986     0.100000     0.449351    Uiso  ? O
   X4         1.0     0.458241     0.900000     0.443358    Uiso  ? O
   C1         1.0     0.547315     0.128440     0.466492    Uiso  ? C
   C2         1.0     0.456776     0.875437     0.486041    Uiso  ? C
   C3         1.0     0.418199     0.518610     0.544756    Uiso  ? C
   C4         1.0     0.423952     0.462512     0.541906    Uiso  ? C
   C5         1.0     0.466357     0.438403     0.513032    Uiso  ? C
   C6         1.0     0.502782     0.473137     0.487321    Uiso  ? C
   C7         1.0     0.545296     0.449237     0.458736    Uiso  ? C
   C8         1.0     0.581636     0.484224     0.432901    Uiso  ? C
   C9         1.0     0.575603     0.540298     0.435338    Uiso  ? C
   C10        1.0     0.532973     0.564419     0.463846    Uiso  ? C
   C11        1.0     0.496825     0.529677     0.489962    Uiso  ? C
   C12        1.0     0.454423     0.553565     0.518700    Uiso  ? C
   C13        1.0     0.448498     0.613729     0.521678    Uiso  ? C
   O5         1.0     0.412997     0.632456     0.550853    Uiso  ? O
   N1         1.0     0.483261     0.644996     0.493342    Uiso  ? N
   C14        1.0     0.525888     0.624540     0.465757    Uiso  ? C
   O6         1.0     0.558884     0.652691     0.441845    Uiso  ? O
   C15        1.0     0.475257     0.702069     0.492600    Uiso  ? C
   C16        1.0     0.480877     0.733304     0.539766    Uiso  ? C
   C17        1.0     0.475618     0.789486     0.537727    Uiso  ? C
   C18        1.0     0.537870     0.187838     0.470807    Uiso  ? C
   C19        1.0     0.456964     0.784408     0.441969    Uiso  ? C
   C20        1.0     0.462909     0.728258     0.443727    Uiso  ? C
   C21        1.0     0.551691     0.389060     0.456175    Uiso  ? C
   O7         1.0     0.590171     0.370764     0.430918    Uiso  ? O
   N2         1.0     0.515029     0.357726     0.482063    Uiso  ? N
   C22        1.0     0.472094     0.378282     0.508941    Uiso  ? C
   O8         1.0     0.436693     0.349878     0.528992    Uiso  ? O
   C23        1.0     0.521552     0.300516     0.479510    Uiso  ? C
   C24        1.0     0.566619     0.275897     0.503767    Uiso  ? C
   C25        1.0     0.574600     0.220124     0.499432    Uiso  ? C
   C26        1.0     0.492791     0.212377     0.446601    Uiso  ? C
   C27        1.0     0.484309     0.267977     0.451475    Uiso  ? C
   H1         1.0     0.458695     0.705606     0.406970    Uiso  ? H
   H2         1.0     0.595951     0.299669     0.525131    Uiso  ? H
   C28        1.0     0.463238     0.815562     0.488867    Uiso  ? C
   H3         1.0     0.447924     0.803748     0.404143    Uiso  ? H
   H4         1.0     0.609547     0.202068     0.517841    Uiso  ? H
   H5         1.0     0.464138     0.189396     0.423612    Uiso  ? H
   O9         1.0     0.439081     0.289393     0.429392    Uiso  ? O
   H6         1.0     0.418585     0.307781     0.455770    Uiso  ? H
   H7         1.0     0.614982     0.467706     0.410482    Uiso  ? H
   H8         1.0     0.604413     0.565379     0.414641    Uiso  ? H
   H9         1.0     0.385018     0.535128     0.567404    Uiso  ? H
   H10        1.0     0.394958     0.437431     0.562334    Uiso  ? H
   O10        1.0     0.490438     0.709829     0.588233    Uiso  ? O
   H11        1.0     0.463993     0.683427     0.595856    Uiso  ? H
   H12        1.0     0.481631     0.811821     0.574372    Uiso  ? H
