# CIF file generated by MofBuilder
# Framework: SimpleCubic
# Title: Example MOF structure
#
data_SimpleCubic

# Chemical information
_chemical_formula_sum 'C6Zn8'
_chemical_name_common 'SimpleCubic'

# Cell parameters
_cell_length_a    10.000000
_cell_length_b    10.000000
_cell_length_c    10.000000
_cell_angle_alpha 90.000
_cell_angle_beta  90.000
_cell_angle_gamma 90.000
_cell_volume      1000.000

# Space group
_space_group_name_H-M_alt    'P 1'
_space_group_IT_number       1

# Atomic coordinates
loop_
_atom_site_label
_atom_site_type_symbol
_atom_site_fract_x
_atom_site_fract_y
_atom_site_fract_z
_atom_site_occupancy
Zn1        Zn  0.200000 0.200000 0.200000 1.000
Zn2        Zn  0.800000 0.200000 0.200000 1.000
Zn3        Zn  0.200000 0.800000 0.200000 1.000
Zn4        Zn  0.800000 0.800000 0.200000 1.000
Zn5        Zn  0.200000 0.200000 0.800000 1.000
Zn6        Zn  0.800000 0.200000 0.800000 1.000
Zn7        Zn  0.200000 0.800000 0.800000 1.000
Zn8        Zn  0.800000 0.800000 0.800000 1.000
C9         C   0.500000 0.500000 0.200000 1.000
C10        C   0.500000 0.500000 0.800000 1.000
C11        C   0.500000 0.200000 0.500000 1.000
C12        C   0.500000 0.800000 0.500000 1.000
C13        C   0.200000 0.500000 0.500000 1.000
C14        C   0.800000 0.500000 0.500000 1.000

