data_placed_structure
_audit_creation_date              2025-01-16
_audit_creation_method            'MOFbuilder_1.0'
_symmetry_space_group_name_H-M    'P1'
_symmetry_Int_Tables_number       1
_symmetry_cell_setting            triclinic
loop_
_symmetry_equiv_pos_as_xyz
  x,y,z
_cell_length_a                    6.623
_cell_length_b                    34.96325
_cell_length_c                    30.18631
_cell_angle_alpha                 90.0
_cell_angle_beta                  90.0
_cell_angle_gamma                 90.0
loop_
_atom_site_label
_atom_site_type_symbol
_atom_site_fract_x
_atom_site_fract_y
_atom_site_fract_z
Al        Al    0.2500000000    0.7500000000    0.2500000000
Al        Al    0.7500000000    0.7500000000    0.2500000000
O          O    1.0000000000    0.7499999995    0.2737896503
O          O    0.1599995900    0.7098490337    0.2116979527
O          O    0.8499994100    0.7901509678    0.2116979549
O          O    0.1599995900    0.7901509678    0.2116979549
O          O    0.8499994100    0.7098490337    0.2116979527
C          C    0.0000000000    0.6915902489    0.1944741286
C          C    1.0000000000    0.8084097533    0.1944741317
Al        Al    0.7500000000    0.2500000000    0.7500000000
Al        Al    0.2500000000    0.2500000000    0.7500000000
O          O    0.5000000000    0.2474504564    0.7736056608
O          O    0.6599995900    0.2142644023    0.7062215496
O          O    0.3499994100    0.2939452801    0.7177668152
O          O    0.6599995900    0.2939452801    0.7177668152
O          O    0.3499994100    0.2142644023    0.7062215496
C          C    0.5000000000    0.1979927129    0.6865058114
C          C    0.5000000000    0.3139087337    0.7033013247
Al        Al    0.7500000000    0.7500000000    0.2500000000
Al        Al    0.2500000000    0.7500000000    0.2500000000
O          O    0.5000000000    0.7525498767    0.2263943874
O          O    0.6599995900    0.7857349799    0.2937791269
O          O    0.3499994100    0.7060542650    0.2822323529
O          O    0.6599995900    0.7060542650    0.2822323529
O          O    0.3499994100    0.7857349799    0.2937791269
C          C    0.5000000000    0.8020063911    0.3134951731
C          C    0.5000000000    0.6860906074    0.2966974655
Al        Al    0.2500000000    0.2500000000    0.7500000000
Al        Al    0.7500000000    0.2500000000    0.7500000000
O          O    0.0000000000    0.2499998739    0.7262103497
O          O    0.1599995900    0.2901511702    0.7883017606
O          O    0.8499994100    0.2098492360    0.7883023318
O          O    0.1599995900    0.2098492360    0.7883023318
O          O    0.8499994100    0.2901511702    0.7883017606
C          C    1.0000000000    0.3084100466    0.8055254544
C          C    0.0000000000    0.1915905421    0.8055262853
C          C    0.7916137531    0.5486154965    0.5256477781
C          C    0.7875410456    0.5199007455    0.5582732816
C          C    0.6604987076    0.4876325411    0.5544529185
C          C    0.5383434673    0.4854454115    0.5163637368
C          C    0.4122770569    0.4531968699    0.5123238308
C          C    0.2896632304    0.4511791300    0.4741330260
C          C    0.2923632595    0.4800600444    0.4417145306
C          C    0.4181737701    0.5124776671    0.4456845515
C          C    0.5416797292    0.5144865392    0.4835899157
C          C    0.6682512707    0.5466594377    0.4875620666
C          C    0.6721907295    0.5773281430    0.4524525488
O          O    0.7973832228    0.6033683106    0.4560231356
N          N    0.5418277320    0.5746066040    0.4177012017
C          C    0.4188108442    0.5438188796    0.4113251717
O          O    0.3064210173    0.5403526509    0.3789751172
C          C    0.5336592220    0.6052068989    0.3860294925
C          C    0.7002440169    0.6136457929    0.3582860783
C          C    0.6858613838    0.6424296907    0.3258827784
C          C    0.5068290892    0.3363763158    0.6794616839
C          C    0.3415994491    0.6560201116    0.3492644618
C          C    0.3545444597    0.6268966064    0.3813196747
C          C    0.4096247593    0.4222430584    0.5471501108
O          O    0.2972256498    0.3945499006    0.5413262426
N          N    0.5319780352    0.4261097990    0.5832031027
C          C    0.6525279818    0.4571539060    0.5897544242
O          O    0.7519777262    0.4620402154    0.6239406244
C          C    0.5287663797    0.3964489863    0.6160937403
C          C    0.5976670051    0.3592721728    0.6054105726
C          C    0.5867604939    0.3295915869    0.6368297400
C          C    0.4381430953    0.3735195821    0.6901959969
C          C    0.4513615366    0.4033596573    0.6590889164
H          H    0.2243343646    0.6210071176    0.4017908947
H          H    0.6562919242    0.3530211006    0.5727948251
C          C    0.5068290892    0.6640844009    0.3212591843
H          H    0.2028406833    0.6721008728    0.3459340431
H          H    0.6385174764    0.3012627694    0.6279375949
H          H    0.3729578699    0.3798658354    0.7221368288
O          O    0.3911911575    0.4390191092    0.6716354860
H          H    0.4975619983    0.4569545268    0.6678865695
H          H    0.1904005421    0.4269086810    0.4695615725
H          H    0.1948199332    0.4772528701    0.4131339422
H          H    0.8916332634    0.5727829529    0.5301083227
H          H    0.8841897949    0.5228242175    0.5869796388
O          O    0.8789560998    0.5947351588    0.3627866530
H          H    0.9268274529    0.5964518593    0.3923895366
H          H    0.8146919614    0.6472071156    0.3046842187
C          C    0.7450100734    0.4284271156    0.0543763546
C          C    0.7495843780    0.4606113218    0.0823185423
C          C    0.8586068133    0.4939008767    0.0709368777
C          C    0.9621826337    0.4934553563    0.0302081911
C          C    0.0701517302    0.5266860753    0.0186354456
C          C    0.1742183827    0.5260681472    0.9778203320
C          C    0.1711733099    0.4937634738    0.9500744969
C          C    0.0635076968    0.4603613598    0.9615967880
C          C    0.9584287343    0.4609422830    0.0021497425
C          C    0.8498936814    0.4277711877    0.0136564457
C          C    0.8453006581    0.3933725484    0.9835429560
O          O    0.7350555994    0.3662352107    0.9937353287
N          N    0.9582065260    0.3939579949    0.9458393120
C          C    0.0628320131    0.4254323761    0.9322438159
O          O    0.1586062680    0.4267689297    0.8972188767
C          C    0.9670742358    0.3601979543    0.9188262564
C          C    0.7938966572    0.3462516985    0.8965444404
C          C    0.8077484540    0.3142925547    0.8684028861
C          C    0.9934950348    0.6599649108    0.1688369616
C          C    0.1656198342    0.3085481403    0.8854388841
C          C    0.1528818012    0.3408237001    0.9131545852
C          C    0.0732109809    0.5613151885    0.0484582076
O          O    0.1690138656    0.5896411392    0.0361011497
N          N    0.9693520771    0.5598640447    0.0874254343
C          C    0.8673696781    0.5281922823    0.1011736193
O          O    0.7858921103    0.5258514263    0.1379146673
C          C    0.9727396661    0.5930010687    0.1155124774
C          C    0.8822027601    0.6275081783    0.1012013645
C          C    0.8925725698    0.6606072250    0.1276552172
C          C    0.0838254192    0.6254937158    0.1831986673
C          C    0.0713741711    0.5922394047    0.1571294295
H          H    0.2880537712    0.3508867626    0.9294752563
H          H    0.8069948793    0.6290840531    0.0694831967
C          C    0.9934950348    0.2949615995    0.8628131350
H          H    0.3093594514    0.2942891599    0.8812547000
H          H    0.8239967987    0.6868261276    0.1159913848
H          H    0.1652901139    0.6238413967    0.2141124237
O          O    0.1533443930    0.5593191943    0.1732623180
H          H    0.0547525960    0.5396219350    0.1746256326
H          H    0.2591602470    0.5509653839    0.9674984331
H          H    0.2541729369    0.4946667473    0.9192082295
H          H    0.6592210815    0.4036079127    0.0645915318
H          H    0.6675811876    0.4596205753    0.1133049148
O          O    0.6097133414    0.3628616611    0.9024019007
H          H    0.5758863855    0.3638743386    0.9329656445
H          H    0.6731026924    0.3052647434    0.8511719518
C          C    0.2549899266    0.0715728863    0.0543763563
C          C    0.2504156220    0.0393886800    0.0823185440
C          C    0.1413931867    0.0060991252    0.0709368794
C          C    0.0378173663    0.0065446455    0.0302081928
C          C    0.9298482698    0.9733139266    0.0186354473
C          C    0.8257816173    0.9739318547    0.9778203337
C          C    0.8288266901    0.0062365281    0.9500744987
C          C    0.9364923032    0.0396386421    0.9615967897
C          C    0.0415712657    0.0390577189    0.0021497442
C          C    0.1501063186    0.0722288142    0.0136564475
C          C    0.1546993419    0.1066274535    0.9835429577
O          O    0.2649444006    0.1337647912    0.9937353304
N          N    0.0417934740    0.1060420070    0.9458393137
C          C    0.9371679869    0.0745676258    0.9322438176
O          O    0.8413937320    0.0732310722    0.8972188784
C          C    0.0329257642    0.1398020476    0.9188262581
C          C    0.2061033428    0.1537483034    0.8965444421
C          C    0.1922515460    0.1857074471    0.8684028879
C          C    0.0065049652    0.8400350911    0.1688369633
C          C    0.8343801658    0.1914518616    0.8854388858
C          C    0.8471181988    0.1591763018    0.9131545869
C          C    0.9267890191    0.9386848134    0.0484582093
O          O    0.8309861344    0.9103588626    0.0361011514
N          N    0.0306479229    0.9401359572    0.0874254360
C          C    0.1326303219    0.9718077196    0.1011736211
O          O    0.2141078897    0.9741485756    0.1379146690
C          C    0.0272603339    0.9069989332    0.1155124791
C          C    0.1177972399    0.8724918236    0.1012013662
C          C    0.1074274302    0.8393927769    0.1276552189
C          C    0.9161745808    0.8745062861    0.1831986691
C          C    0.9286258289    0.9077605972    0.1571294312
H          H    0.7119462288    0.1491132393    0.9294752580
H          H    0.1930051207    0.8709159488    0.0694831984
C          C    0.0065049652    0.2050384024    0.8628131367
H          H    0.6906405486    0.2057108420    0.8812547017
H          H    0.1760032013    0.8131738743    0.1159913865
H          H    0.8347098861    0.8761586052    0.2141124254
O          O    0.8466556070    0.9406808076    0.1732623197
H          H    0.9452474040    0.9603780669    0.1746256343
H          H    0.7408397530    0.9490346180    0.9674984348
H          H    0.7458270631    0.0053332546    0.9192082312
H          H    0.3407789185    0.0963920892    0.0645915335
H          H    0.3324188124    0.0403794266    0.1133049165
O          O    0.3902866586    0.1371383408    0.9024019024
H          H    0.4241136145    0.1361256633    0.9329656463
H          H    0.3268973076    0.1947352585    0.8511719536
C          C    0.8023160102    0.9377748735    0.5425705455
C          C    0.8057580489    0.9712459180    0.5684135173
C          C    0.6584339072    0.0001229587    0.5634238949
C          C    0.5073000654    0.9938206501    0.5314444250
C          C    0.3594747944    0.0224638785    0.5265503939
C          C    0.2085451916    0.0160649498    0.4943601837
C          C    0.2061686548    0.9827637721    0.4682392983
C          C    0.3543317460    0.9540194981    0.4729684123
C          C    0.5044294307    0.9601733128    0.5052359427
C          C    0.6518382830    0.9314799043    0.5102432181
C          C    0.6472350435    0.8956326782    0.4824888244
O          O    0.7711551988    0.8701613250    0.4906933671
N          N    0.5038808670    0.8923005136    0.4503715055
C          C    0.3540948188    0.9185707637    0.4444632505
O          O    0.2186634139    0.9150079549    0.4167010970
C          C    0.5084631692    0.8596456305    0.4215453473
C          C    0.4730114061    0.8222646956    0.4378552061
C          C    0.4677501913    0.7908557738    0.4087583718
C          C    0.5030433646    0.1653047811    0.6618615622
C          C    0.5408999943    0.8331130552    0.3467382121
C          C    0.5435866777    0.8646703585    0.3756714249
C          C    0.3623238215    0.0581730586    0.5546135382
O          O    0.2270379786    0.0819422379    0.5489616940
N          N    0.5128314081    0.0624528025    0.5850355232
C          C    0.6637364380    0.0364042212    0.5904092931
O          O    0.8083103892    0.0415845839    0.6156017089
C          C    0.5138842951    0.0964824327    0.6116616610
C          C    0.3561674836    0.1032729092    0.6422809810
C          C    0.3511628810    0.1373434588    0.6671050478
C          C    0.6608401126    0.1585369192    0.6313153826
C          C    0.6677886104    0.1243014370    0.6069041446
H          H    0.5698498421    0.8928537396    0.3621445019
H          H    0.2357902736    0.0827210269    0.6464595393
C          C    0.5030433646    0.7959370179    0.3629455588
H          H    0.5665665237    0.8375650885    0.3117160574
H          H    0.2284069282    0.1421917671    0.6900769357
H          H    0.7783533124    0.1793766679    0.6257108541
O          O    0.8274987190    0.1183956235    0.5792829529
H          H    0.8955589198    0.0953380300    0.5866350311
H          H    0.0916106262    0.0372651427    0.4894338577
H          H    0.0876968665    0.9792914232    0.4438749722
H          H    0.9186329258    0.9164888734    0.5476576875
H          H    0.9249229664    0.9748197348    0.5925893050
O          O    0.4470944461    0.8156787434    0.4819791226
H          H    0.5574880172    0.8256154803    0.4984561293
H          H    0.4349121325    0.7630242001    0.4224660726
loop_
_geom_bond_atom_site_label_1
_geom_bond_atom_site_label_2
_geom_bond_distance
_geom_bond_site_symmetry_2
_ccdc_geom_bond_type
