data_placed_structure
_audit_creation_date              2025-01-21
_audit_creation_method            'MOFbuilder_1.0'
_symmetry_space_group_name_H-M    'P1'
_symmetry_Int_Tables_number       1
_symmetry_cell_setting            triclinic
loop_
_symmetry_equiv_pos_as_xyz
  x,y,z
_cell_length_a                    6.623
_cell_length_b                    35.11181
_cell_length_c                    30.69112
_cell_angle_alpha                 90.0
_cell_angle_beta                  90.0
_cell_angle_gamma                 90.0
loop_
_atom_site_label
_atom_site_type_symbol
_atom_site_fract_x
_atom_site_fract_y
_atom_site_fract_z
Al        Al    0.2500000000    0.7500000000    0.2500000000
Al        Al    0.7500000000    0.7500000000    0.2500000000
O          O    0.0000000000    0.7499999995    0.2733983563
O          O    0.1599995900    0.7100189146    0.2123279479
O          O    0.8499994100    0.7899810869    0.2123279500
O          O    0.1599995900    0.7899810869    0.2123279500
O          O    0.8499994100    0.7100189146    0.2123279479
X          X    0.0000000000    0.6918373837    0.1953874226
X          X    1.0000000000    0.8081626185    0.1953874256
Al        Al    0.7500000000    0.2500000000    0.7500000000
Al        Al    0.2500000000    0.2500000000    0.7500000000
O          O    0.5000000000    0.2474612437    0.7732173930
O          O    0.6599995900    0.2144156016    0.7069416211
O          O    0.3499994100    0.2937593452    0.7182969892
O          O    0.6599995900    0.2937593452    0.7182969892
O          O    0.3499994100    0.2144156016    0.7069416211
X          X    0.5000000000    0.1982127586    0.6875501689
X          X    0.5000000000    0.3136383323    0.7040694282
Al        Al    0.7500000000    0.7500000000    0.2500000000
Al        Al    0.2500000000    0.7500000000    0.2500000000
O          O    0.5000000000    0.7525390880    0.2267826544
O          O    0.6599995900    0.7855837833    0.2930590443
O          O    0.3499994100    0.7062402019    0.2817021926
O          O    0.6599995900    0.7062402019    0.2817021926
O          O    0.3499994100    0.7855837833    0.2930590443
X          X    0.5000000000    0.8017863492    0.3124507994
X          X    0.5000000000    0.6863610115    0.2959293818
Al        Al    0.2500000000    0.2500000000    0.7500000000
Al        Al    0.7500000000    0.2500000000    0.7500000000
O          O    0.0000000000    0.2499998744    0.7266016437
O          O    0.1599995900    0.2899812883    0.7876717702
O          O    0.8499994100    0.2100191161    0.7876723319
O          O    0.1599995900    0.2100191161    0.7876723319
O          O    0.8499994100    0.2899812883    0.7876717702
X          X    1.0000000000    0.3081629105    0.8046121673
X          X    0.0000000000    0.1918376758    0.8046129845
C          C    0.1976839898    0.5469434431    0.5228768792
C          C    0.1942419511    0.5174142065    0.5538399995
C          C    0.3415660928    0.4883416316    0.5540338218
C          C    0.4926999346    0.4903280990    0.5218514925
C          C    0.6405252056    0.4614981940    0.5220973871
C          C    0.7914548084    0.4635519590    0.4896933593
C          C    0.7938313452    0.4928774173    0.4584897950
C          C    0.6456682540    0.5217850145    0.4580659660
C          C    0.4955705693    0.5199826319    0.4905023340
C          C    0.3481617170    0.5488768399    0.4903577404
C          C    0.3527649565    0.5804923017    0.4571218631
O          O    0.2288448012    0.6066374253    0.4606475026
N          N    0.4961191330    0.5795379867    0.4253242890
C          C    0.6459051812    0.5529094081    0.4241699951
O          O    0.7813365861    0.5527560697    0.3965650315
C          C    0.4915368308    0.6078709301    0.3916042784
C          C    0.5269885939    0.6468033533    0.4009276723
C          C    0.5322498087    0.6738745984    0.3671621915
X          X    0.4969566354    0.3387775452    0.6785567297
C          C    0.4591000057    0.6241191134    0.3142634812
C          C    0.4564133223    0.5968802956    0.3478958490
C          C    0.6376761785    0.4300592633    0.5556092369
O          O    0.7729620214    0.4059255271    0.5542673443
N          N    0.4871685919    0.4298577130    0.5859245685
C          C    0.3362635620    0.4561977234    0.5865980976
O          O    0.1916896108    0.4544206943    0.6119879746
C          C    0.4861157049    0.3998820532    0.6177464239
C          C    0.6438325164    0.3972359583    0.6486920483
C          C    0.6488371190    0.3669825156    0.6787695730
C          C    0.3391598874    0.3414110275    0.6476861418
C          C    0.3322113896    0.3718811754    0.6179810502
H          H    0.4301501579    0.5673650389    0.3396709113
H          H    0.7642097264    0.4180096997    0.6491639172
X          X    0.4969566354    0.6628364066    0.3235230264
H          H    0.4334334763    0.6151223034    0.2810021314
H          H    0.7715930718    0.3652395551    0.7019432712
H          H    0.2216466876    0.3201660793    0.6458786131
O          O    0.1725012810    0.3740519264    0.5901038865
H          H    0.1044410802    0.3977095599    0.5932225564
H          H    0.9083893738    0.4420417238    0.4886079437
H          H    0.9123031335    0.4930829102    0.4342030625
H          H    0.0813670742    0.5685593085    0.5241036097
H          H    0.0750770336    0.5170840196    0.5779612083
O          O    0.5529055539    0.6590995722    0.4426625609
H          H    0.4425119828    0.6514935679    0.4604124152
H          H    0.5650878675    0.7030675046    0.3756242746
C          C    0.0844885336    0.5044636099    0.9350020754
C          C    0.0787852234    0.5368067421    0.9620184143
C          C    0.0511959188    0.5337298975    0.0075064336
C          C    0.0302611493    0.4967408975    0.0246358186
C          C    0.0038474791    0.4935523564    0.0700199627
C          C    0.9823787194    0.4564115680    0.0870327849
C          C    0.9862156078    0.4240973708    0.0599750291
C          C    0.0121991869    0.4271720731    0.0144519611
C          C    0.0349632612    0.4641517739    0.9973767889
C          C    0.0620781114    0.4673398815    0.9520218572
C          C    0.0683466157    0.4325642033    0.9232264446
O          O    0.1080809170    0.4369058516    0.8841878978
N          N    0.0354204533    0.3977659659    0.9414993689
C          C    0.0129133898    0.3925925511    0.9852664750
O          O    0.9915154828    0.3610207361    0.0023035664
C          C    0.0253514931    0.3648858324    0.9137687348
C          C    0.1964636579    0.3520851557    0.8902879052
C          C    0.1866017253    0.3186920291    0.8650575299
X          X    0.0043607859    0.6590992247    0.1663600209
C          C    0.8330510711    0.3109193787    0.8847464011
C          C    0.8431363370    0.3440345544    0.9104863778
C          C    0.9997747658    0.5282645049    0.0989898478
O          O    0.9782825808    0.5234281563    0.1385407855
N          N    0.0212576885    0.5632598043    0.0802928519
C          C    0.0408802053    0.5683432081    0.0365068798
O          O    0.0452158093    0.6001353958    0.0192338228
C          C    0.0177407334    0.5961049036    0.1081528084
C          C    0.1729426278    0.6017385588    0.1391673752
C          C    0.1660632352    0.6329439911    0.1679257316
C          C    0.8493052204    0.6535277941    0.1353539099
C          C    0.8571217294    0.6226751293    0.1061803847
H          H    0.7102417538    0.3529182813    0.9282128864
H          H    0.2968427687    0.5818323258    0.1416846189
X          X    0.0043607859    0.2979219454    0.8617961207
H          H    0.6928013351    0.2951962317    0.8829062948
H          H    0.2851753139    0.6366047627    0.1916849038
H          H    0.7211807689    0.6724576367    0.1334513413
O          O    0.7086143975    0.6194428226    0.0756775613
H          H    0.7643474662    0.6189289942    0.0471649265
H          H    0.9618993017    0.4525371063    0.1217362573
H          H    0.9681935783    0.3962539326    0.0745936560
H          H    0.1060148142    0.5083275073    0.9003326320
H          H    0.0955916461    0.5646599120    0.9473653785
O          O    0.3728821650    0.3720429154    0.8908383658
H          H    0.3508887876    0.3977134103    0.8822782275
H          H    0.3221329979    0.3094356368    0.8486347879
C          C    0.9155114664    0.9955363920    0.9350020771
C          C    0.9212147766    0.9631932598    0.9620184160
C          C    0.9488040812    0.9662701044    0.0075064353
C          C    0.9697388507    0.0032591044    0.0246358202
C          C    0.9961525209    0.0064476455    0.0700199643
C          C    0.0176212806    0.0435884339    0.0870327866
C          C    0.0137843922    0.0759026311    0.0599750307
C          C    0.9878008131    0.0728279287    0.0144519628
C          C    0.9650367388    0.0358482280    0.9973767906
C          C    0.9379218886    0.0326601204    0.9520218589
C          C    0.9316533843    0.0674357986    0.9232264463
O          O    0.8919190830    0.0630941503    0.8841878995
N          N    0.9645795467    0.1022340360    0.9414993706
C          C    0.9870866102    0.1074074508    0.9852664767
O          O    0.0084845172    0.1389792657    0.0023035681
C          C    0.9746485069    0.1351141695    0.9137687365
C          C    0.8035363421    0.1479148462    0.8902879069
C          C    0.8133982747    0.1813079728    0.8650575316
X          X    0.9956392141    0.8409007771    0.1663600225
C          C    0.1669489289    0.1890806232    0.8847464028
C          C    0.1568636630    0.1559654475    0.9104863795
C          C    0.0002252342    0.9717354970    0.0989898495
O          O    0.0217174192    0.9765718456    0.1385407872
N          N    0.9787423115    0.9367401976    0.0802928536
C          C    0.9591197947    0.9316567938    0.0365068815
O          O    0.9547841907    0.8998646061    0.0192338245
C          C    0.9822592666    0.9038950983    0.1081528100
C          C    0.8270573722    0.8982614431    0.1391673768
C          C    0.8339367648    0.8670560107    0.1679257333
C          C    0.1506947796    0.8464722078    0.1353539116
C          C    0.1428782706    0.8773248726    0.1061803864
H          H    0.2897582462    0.1470817205    0.9282128881
H          H    0.7031572313    0.9181676761    0.1416846206
X          X    0.9956392141    0.2020780565    0.8617961224
H          H    0.3071986649    0.2048037702    0.8829062965
H          H    0.7148246861    0.8633952392    0.1916849055
H          H    0.2788192311    0.8275423652    0.1334513430
O          O    0.2913856025    0.8805571793    0.0756775630
H          H    0.2356525338    0.8810710077    0.0471649282
H          H    0.0381006983    0.0474628956    0.1217362590
H          H    0.0318064217    0.1037460693    0.0745936577
H          H    0.8939851858    0.9916724946    0.9003326337
H          H    0.9044083539    0.9353400899    0.9473653802
O          O    0.6271178350    0.1279570865    0.8908383675
H          H    0.6491112124    0.1022865916    0.8822782291
H          H    0.6778670021    0.1905643651    0.8486347896
C          C    0.1968413420    0.9921008844    0.4541708613
C          C    0.1934151026    0.0242155378    0.4815592894
C          C    0.3410981314    0.0298812145    0.5141066488
C          C    0.4925720702    0.0019326102    0.5178107898
C          C    0.6407526126    0.0075977382    0.5500753876
C          C    0.7920239949    0.9794460979    0.5537455389
C          C    0.7943900076    0.9471627587    0.5266317791
C          C    0.6458727017    0.9413301756    0.4943133945
C          C    0.4954297356    0.9694628159    0.4903541882
C          C    0.3476636579    0.9638727803    0.4579981081
C          C    0.3522509450    0.9294164045    0.4286901144
O          O    0.2279659475    0.9275012982    0.3987221010
N          N    0.4959775024    0.9023460054    0.4356316808
C          C    0.6461073161    0.9063973661    0.4656834813
O          O    0.7818535339    0.8827739247    0.4709445005
C          C    0.4914256678    0.8680852569    0.4101087078
C          C    0.5262865929    0.8688127405    0.3645895388
C          C    0.5315944427    0.8347528892    0.3404870949
X          X    0.4969347791    0.1648675355    0.6587739577
C          C    0.4596655975    0.7986231966    0.4063519359
C          C    0.4569358630    0.8326010913    0.4306660883
C          C    0.6379141941    0.0422586643    0.5791322686
O          O    0.7735149583    0.0456763424    0.6064241659
N          N    0.4870655009    0.0682701718    0.5737715038
C          C    0.3358257676    0.0638596375    0.5441346945
O          O    0.1909862591    0.0859392507    0.5414632837
C          C    0.4860241992    0.1012066519    0.6014993799
C          C    0.6434213986    0.1283316237    0.5985837723
C          C    0.6484608313    0.1598246400    0.6269468613
C          C    0.3394569480    0.1378093247    0.6616897350
C          C    0.3324667014    0.1065947855    0.6330145293
H          H    0.4311337626    0.8310565974    0.4653911094
H          H    0.7635339304    0.1248911111    0.5750781446
X          X    0.4969347791    0.7993370392    0.3610850502
H          H    0.4344891816    0.7717393307    0.4227066161
H          H    0.7709744451    0.1800942824    0.6244926197
H          H    0.2222294538    0.1401923078    0.6859733195
O          O    0.1730472662    0.0821927662    0.6358908899
H          H    0.1046574938    0.0804148124    0.6087611742
H          H    0.9092380117    0.9825858657    0.5780520845
H          H    0.9131345332    0.9263149523    0.5308782693
H          H    0.0802420506    0.9890629015    0.4297187767
H          H    0.0739808852    0.0449443150    0.4774843408
O          O    0.5515760744    0.9023544429    0.3429400271
H          H    0.4410761328    0.9189784116    0.3482295174
H          H    0.5639727180    0.8365638131    0.3060759950
loop_
_geom_bond_atom_site_label_1
_geom_bond_atom_site_label_2
_geom_bond_distance
_geom_bond_site_symmetry_2
_ccdc_geom_bond_type
