data_0venode Generated by MOFbuilder 1.0, no bond information
_audit_creation_date              2025-06-15
_audit_creation_method            'MOFbuilder_1.0'
_symmetry_space_group_name_H-M    'P1'
_symmetry_Int_Tables_number       1
_symmetry_cell_setting            triclinic
loop_
_symmetry_equiv_pos_as_xyz
  x,y,z
_cell_length_a                    25.0388
_cell_length_b                    25.0388
_cell_length_c                    8.4776
_cell_angle_alpha                 90.0
_cell_angle_beta                  90.0
_cell_angle_gamma                 120.0
loop_
_atom_site_label
_atom_site_type_symbol
_atom_site_fract_x
_atom_site_fract_y
_atom_site_fract_z
V1    V   0.00030  0.28770  0.99970
V2    V   0.00030  0.71270  0.99970
V3    V   0.04570  0.37930  0.66630
V4    V   0.04570  0.66630  0.66630
V5    V   0.04600  0.37900  0.66700
V6    V   0.04600  0.66700  0.66700
V7    V   0.28730  0.28770  0.99970
V8    V   0.28730  0.99970  0.99970
V9    V   0.28770  0.00030  0.00030
V10   V   0.28770  0.28730  0.00030
V11   V   0.33300  0.37900  0.66700
V12   V   0.33300  0.95400  0.66700
V13   V   0.33370  0.37930  0.66630
V14   V   0.33370  0.95430  0.66630
V15   V   0.37900  0.04600  0.33300
V16   V   0.37900  0.33300  0.33300
V17   V   0.37930  0.04570  0.33370
V18   V   0.37930  0.33370  0.33370
V19   V   0.62070  0.66630  0.66630
V20   V   0.62070  0.95430  0.66630
V21   V   0.62100  0.66700  0.66700
V22   V   0.62100  0.95400  0.66700
V23   V   0.66630  0.04570  0.33370
V24   V   0.66630  0.62070  0.33370
V25   V   0.66700  0.04600  0.33300
V26   V   0.66700  0.62100  0.33300
V27   V   0.71230  0.71270  0.99970
V28   V   0.71230  0.99970  0.99970
V29   V   0.71270  0.00030  0.00030
V30   V   0.71270  0.71230  0.00030
V31   V   0.95400  0.33300  0.33300
V32   V   0.95400  0.62100  0.33300
V33   V   0.95430  0.33370  0.33370
V34   V   0.95430  0.62070  0.33370
V35   V   0.99970  0.28730  0.00030
V36   V   0.99970  0.71230  0.00030
E1    E   0.00000  0.50000  0.00000
E2    E   0.16665  0.33335  0.33335
E3    E   0.16665  0.83335  0.33335
E4    E   0.33335  0.16665  0.66665
E5    E   0.50000  0.00000  0.00000
E6    E   0.50000  0.50000  0.00000
E7    E   0.50000  1.00000  0.00000
E8    E   0.66665  0.83335  0.33335
E9    E   0.83335  0.16665  0.66665
E10   E   0.83335  0.66665  0.66665
E11   E   1.00000  0.50000  0.00000
loop_
